power_algorithms/VelikaSema.dss
Clear 
Set DefaultBaseFrequency=50
New circuit.NRsema basekV=11.547 pu=1.03 angle=0 frequency=50 phases=3 Bus1=Bus_0

New linecode.AB nphases = 3 R1 = 0.224 X1 = 0.109


!FEEDER_1

New Line.Line_1 Phases=3 BaseFreq=50 Bus1=Bus_1009 Bus2=Bus_1 LineCode=AB Length=0.1  units=km
New Line.Line_2 Phases=3 BaseFreq=50 Bus1=Bus_1 Bus2=Bus_2 LineCode=AB Length=0.1  units=km
New Line.Line_3 Phases=3 BaseFreq=50 Bus1=Bus_2 Bus2=Bus_3 LineCode=AB Length=0.1  units=km
New Line.Line_4 Phases=3 BaseFreq=50 Bus1=Bus_3 Bus2=Bus_4 LineCode=AB Length=0.1  units=km
New Line.Line_5 Phases=3 BaseFreq=50 Bus1=Bus_4 Bus2=Bus_5 LineCode=AB Length=0.1  units=km
New Line.Line_6 Phases=3 BaseFreq=50 Bus1=Bus_5 Bus2=Bus_6 LineCode=AB Length=0.1  units=km
New Line.Line_7 Phases=3 BaseFreq=50 Bus1=Bus_6 Bus2=Bus_7 LineCode=AB Length=0.1  units=km
New Line.Line_8 Phases=3 BaseFreq=50 Bus1=Bus_7 Bus2=Bus_8 LineCode=AB Length=0.1  units=km
New Line.Line_9 Phases=3 BaseFreq=50 Bus1=Bus_8 Bus2=Bus_9 LineCode=AB Length=0.1  units=km
New Line.Line_10 Phases=3 BaseFreq=50 Bus1=Bus_9 Bus2=Bus_10 LineCode=AB Length=0.1  units=km
New Line.Line_11 Phases=3 BaseFreq=50 Bus1=Bus_10 Bus2=Bus_11 LineCode=AB Length=0.1  units=km
New Line.Line_12 Phases=3 BaseFreq=50 Bus1=Bus_11 Bus2=Bus_12 LineCode=AB Length=0.1  units=km
New Line.Line_13 Phases=3 BaseFreq=50 Bus1=Bus_12 Bus2=Bus_13 LineCode=AB Length=0.1  units=km
New Line.Line_14 Phases=3 BaseFreq=50 Bus1=Bus_13 Bus2=Bus_14 LineCode=AB Length=0.1  units=km
New Line.Line_15 Phases=3 BaseFreq=50 Bus1=Bus_14 Bus2=Bus_15 LineCode=AB Length=0.1  units=km
New Line.Line_16 Phases=3 BaseFreq=50 Bus1=Bus_15 Bus2=Bus_16 LineCode=AB Length=0.1  units=km
New Line.Line_17 Phases=3 BaseFreq=50 Bus1=Bus_16 Bus2=Bus_17 LineCode=AB Length=0.1  units=km
New Line.Line_18 Phases=3 BaseFreq=50 Bus1=Bus_17 Bus2=Bus_18 LineCode=AB Length=0.1  units=km
New Line.Line_19 Phases=3 BaseFreq=50 Bus1=Bus_18 Bus2=Bus_19 LineCode=AB Length=0.1  units=km
New Line.Line_20 Phases=3 BaseFreq=50 Bus1=Bus_19 Bus2=Bus_20 LineCode=AB Length=0.1  units=km
New Line.Line_21 Phases=3 BaseFreq=50 Bus1=Bus_20 Bus2=Bus_21 LineCode=AB Length=0.1  units=km
New Line.Line_22 Phases=3 BaseFreq=50 Bus1=Bus_21 Bus2=Bus_22 LineCode=AB Length=0.1  units=km
New Line.Line_23 Phases=3 BaseFreq=50 Bus1=Bus_22 Bus2=Bus_23 LineCode=AB Length=0.1  units=km
New Line.Line_24 Phases=3 BaseFreq=50 Bus1=Bus_23 Bus2=Bus_24 LineCode=AB Length=0.1  units=km
New Line.Line_25 Phases=3 BaseFreq=50 Bus1=Bus_24 Bus2=Bus_25 LineCode=AB Length=0.1  units=km
New Line.Line_26 Phases=3 BaseFreq=50 Bus1=Bus_25 Bus2=Bus_26 LineCode=AB Length=0.1  units=km
New Line.Line_27 Phases=3 BaseFreq=50 Bus1=Bus_26 Bus2=Bus_27 LineCode=AB Length=0.1  units=km
New Line.Line_28 Phases=3 BaseFreq=50 Bus1=Bus_27 Bus2=Bus_28 LineCode=AB Length=0.1  units=km
New Line.Line_29 Phases=3 BaseFreq=50 Bus1=Bus_28 Bus2=Bus_29 LineCode=AB Length=0.1  units=km
New Line.Line_30 Phases=3 BaseFreq=50 Bus1=Bus_29 Bus2=Bus_30 LineCode=AB Length=0.1  units=km
New Line.Line_31 Phases=3 BaseFreq=50 Bus1=Bus_30 Bus2=Bus_31 LineCode=AB Length=0.1  units=km
New Line.Line_32 Phases=3 BaseFreq=50 Bus1=Bus_31 Bus2=Bus_32 LineCode=AB Length=0.1  units=km
New Line.Line_33 Phases=3 BaseFreq=50 Bus1=Bus_32 Bus2=Bus_33 LineCode=AB Length=0.1  units=km
New Line.Line_34 Phases=3 BaseFreq=50 Bus1=Bus_33 Bus2=Bus_34 LineCode=AB Length=0.1  units=km
New Line.Line_35 Phases=3 BaseFreq=50 Bus1=Bus_34 Bus2=Bus_35 LineCode=AB Length=0.1  units=km
New Line.Line_36 Phases=3 BaseFreq=50 Bus1=Bus_35 Bus2=Bus_36 LineCode=AB Length=0.1  units=km
New Line.Line_37 Phases=3 BaseFreq=50 Bus1=Bus_36 Bus2=Bus_37 LineCode=AB Length=0.1  units=km
New Line.Line_38 Phases=3 BaseFreq=50 Bus1=Bus_37 Bus2=Bus_38 LineCode=AB Length=0.1  units=km
New Line.Line_39 Phases=3 BaseFreq=50 Bus1=Bus_38 Bus2=Bus_39 LineCode=AB Length=0.1  units=km
New Line.Line_40 Phases=3 BaseFreq=50 Bus1=Bus_39 Bus2=Bus_40 LineCode=AB Length=0.1  units=km
New Line.Line_41 Phases=3 BaseFreq=50 Bus1=Bus_40 Bus2=Bus_41 LineCode=AB Length=0.1  units=km
New Line.Line_42 Phases=3 BaseFreq=50 Bus1=Bus_41 Bus2=Bus_42 LineCode=AB Length=0.1  units=km
New Line.Line_43 Phases=3 BaseFreq=50 Bus1=Bus_42 Bus2=Bus_43 LineCode=AB Length=0.1  units=km
New Line.Line_44 Phases=3 BaseFreq=50 Bus1=Bus_43 Bus2=Bus_44 LineCode=AB Length=0.1  units=km
New Line.Line_45 Phases=3 BaseFreq=50 Bus1=Bus_44 Bus2=Bus_45 LineCode=AB Length=0.1  units=km
New Line.Line_46 Phases=3 BaseFreq=50 Bus1=Bus_45 Bus2=Bus_46 LineCode=AB Length=0.1  units=km
New Line.Line_47 Phases=3 BaseFreq=50 Bus1=Bus_46 Bus2=Bus_47 LineCode=AB Length=0.1  units=km
New Line.Line_48 Phases=3 BaseFreq=50 Bus1=Bus_47 Bus2=Bus_48 LineCode=AB Length=0.1  units=km
New Line.Line_49 Phases=3 BaseFreq=50 Bus1=Bus_48 Bus2=Bus_49 LineCode=AB Length=0.1  units=km
New Line.Line_50 Phases=3 BaseFreq=50 Bus1=Bus_1010 Bus2=Bus_50 LineCode=AB Length=0.1  units=km
New Line.Line_51 Phases=3 BaseFreq=50 Bus1=Bus_50 Bus2=Bus_51 LineCode=AB Length=0.1  units=km
New Line.Line_52 Phases=3 BaseFreq=50 Bus1=Bus_51 Bus2=Bus_52 LineCode=AB Length=0.1  units=km
New Line.Line_53 Phases=3 BaseFreq=50 Bus1=Bus_52 Bus2=Bus_53 LineCode=AB Length=0.1  units=km
New Line.Line_54 Phases=3 BaseFreq=50 Bus1=Bus_53 Bus2=Bus_54 LineCode=AB Length=0.1  units=km
New Line.Line_55 Phases=3 BaseFreq=50 Bus1=Bus_54 Bus2=Bus_55 LineCode=AB Length=0.1  units=km
New Line.Line_56 Phases=3 BaseFreq=50 Bus1=Bus_55 Bus2=Bus_56 LineCode=AB Length=0.1  units=km
New Line.Line_57 Phases=3 BaseFreq=50 Bus1=Bus_56 Bus2=Bus_57 LineCode=AB Length=0.1  units=km
New Line.Line_58 Phases=3 BaseFreq=50 Bus1=Bus_57 Bus2=Bus_58 LineCode=AB Length=0.1  units=km
New Line.Line_59 Phases=3 BaseFreq=50 Bus1=Bus_58 Bus2=Bus_59 LineCode=AB Length=0.1  units=km
New Line.Line_60 Phases=3 BaseFreq=50 Bus1=Bus_59 Bus2=Bus_60 LineCode=AB Length=0.1  units=km
New Line.Line_61 Phases=3 BaseFreq=50 Bus1=Bus_60 Bus2=Bus_61 LineCode=AB Length=0.1  units=km
New Line.Line_62 Phases=3 BaseFreq=50 Bus1=Bus_61 Bus2=Bus_62 LineCode=AB Length=0.1  units=km
New Line.Line_63 Phases=3 BaseFreq=50 Bus1=Bus_62 Bus2=Bus_63 LineCode=AB Length=0.1  units=km
New Line.Line_64 Phases=3 BaseFreq=50 Bus1=Bus_63 Bus2=Bus_64 LineCode=AB Length=0.1  units=km
New Line.Line_65 Phases=3 BaseFreq=50 Bus1=Bus_64 Bus2=Bus_65 LineCode=AB Length=0.1  units=km
New Line.Line_66 Phases=3 BaseFreq=50 Bus1=Bus_65 Bus2=Bus_66 LineCode=AB Length=0.1  units=km
New Line.Line_67 Phases=3 BaseFreq=50 Bus1=Bus_66 Bus2=Bus_67 LineCode=AB Length=0.1  units=km
New Line.Line_68 Phases=3 BaseFreq=50 Bus1=Bus_67 Bus2=Bus_68 LineCode=AB Length=0.1  units=km
New Line.Line_69 Phases=3 BaseFreq=50 Bus1=Bus_68 Bus2=Bus_69 LineCode=AB Length=0.1  units=km
New Line.Line_70 Phases=3 BaseFreq=50 Bus1=Bus_69 Bus2=Bus_70 LineCode=AB Length=0.1  units=km
New Line.Line_71 Phases=3 BaseFreq=50 Bus1=Bus_70 Bus2=Bus_71 LineCode=AB Length=0.1  units=km
New Line.Line_72 Phases=3 BaseFreq=50 Bus1=Bus_71 Bus2=Bus_72 LineCode=AB Length=0.1  units=km
New Line.Line_73 Phases=3 BaseFreq=50 Bus1=Bus_72 Bus2=Bus_73 LineCode=AB Length=0.1  units=km
New Line.Line_74 Phases=3 BaseFreq=50 Bus1=Bus_73 Bus2=Bus_74 LineCode=AB Length=0.1  units=km
New Line.Line_75 Phases=3 BaseFreq=50 Bus1=Bus_74 Bus2=Bus_75 LineCode=AB Length=0.1  units=km
New Line.Line_76 Phases=3 BaseFreq=50 Bus1=Bus_75 Bus2=Bus_76 LineCode=AB Length=0.1  units=km
New Line.Line_77 Phases=3 BaseFreq=50 Bus1=Bus_76 Bus2=Bus_77 LineCode=AB Length=0.1  units=km
New Line.Line_78 Phases=3 BaseFreq=50 Bus1=Bus_77 Bus2=Bus_78 LineCode=AB Length=0.1  units=km
New Line.Line_79 Phases=3 BaseFreq=50 Bus1=Bus_78 Bus2=Bus_79 LineCode=AB Length=0.1  units=km
New Line.Line_80 Phases=3 BaseFreq=50 Bus1=Bus_79 Bus2=Bus_80 LineCode=AB Length=0.1  units=km
New Line.Line_81 Phases=3 BaseFreq=50 Bus1=Bus_80 Bus2=Bus_81 LineCode=AB Length=0.1  units=km
New Line.Line_82 Phases=3 BaseFreq=50 Bus1=Bus_81 Bus2=Bus_82 LineCode=AB Length=0.1  units=km
New Line.Line_83 Phases=3 BaseFreq=50 Bus1=Bus_82 Bus2=Bus_83 LineCode=AB Length=0.1  units=km
New Line.Line_84 Phases=3 BaseFreq=50 Bus1=Bus_83 Bus2=Bus_84 LineCode=AB Length=0.1  units=km
New Line.Line_85 Phases=3 BaseFreq=50 Bus1=Bus_84 Bus2=Bus_85 LineCode=AB Length=0.1  units=km
New Line.Line_86 Phases=3 BaseFreq=50 Bus1=Bus_85 Bus2=Bus_86 LineCode=AB Length=0.1  units=km
New Line.Line_87 Phases=3 BaseFreq=50 Bus1=Bus_86 Bus2=Bus_87 LineCode=AB Length=0.1  units=km
New Line.Line_88 Phases=3 BaseFreq=50 Bus1=Bus_87 Bus2=Bus_88 LineCode=AB Length=0.1  units=km
New Line.Line_89 Phases=3 BaseFreq=50 Bus1=Bus_88 Bus2=Bus_89 LineCode=AB Length=0.1  units=km
New Line.Line_90 Phases=3 BaseFreq=50 Bus1=Bus_89 Bus2=Bus_90 LineCode=AB Length=0.1  units=km
New Line.Line_91 Phases=3 BaseFreq=50 Bus1=Bus_90 Bus2=Bus_91 LineCode=AB Length=0.1  units=km
New Line.Line_92 Phases=3 BaseFreq=50 Bus1=Bus_91 Bus2=Bus_92 LineCode=AB Length=0.1  units=km
New Line.Line_93 Phases=3 BaseFreq=50 Bus1=Bus_92 Bus2=Bus_93 LineCode=AB Length=0.1  units=km
New Line.Line_94 Phases=3 BaseFreq=50 Bus1=Bus_93 Bus2=Bus_94 LineCode=AB Length=0.1  units=km
New Line.Line_95 Phases=3 BaseFreq=50 Bus1=Bus_94 Bus2=Bus_95 LineCode=AB Length=0.1  units=km
New Line.Line_96 Phases=3 BaseFreq=50 Bus1=Bus_95 Bus2=Bus_96 LineCode=AB Length=0.1  units=km
New Line.Line_97 Phases=3 BaseFreq=50 Bus1=Bus_1011 Bus2=Bus_97 LineCode=AB Length=0.1  units=km
New Line.Line_98 Phases=3 BaseFreq=50 Bus1=Bus_97 Bus2=Bus_98 LineCode=AB Length=0.1  units=km
New Line.Line_99 Phases=3 BaseFreq=50 Bus1=Bus_98 Bus2=Bus_99 LineCode=AB Length=0.1  units=km
New Line.Line_100 Phases=3 BaseFreq=50 Bus1=Bus_99 Bus2=Bus_100 LineCode=AB Length=0.1  units=km
New Line.Line_101 Phases=3 BaseFreq=50 Bus1=Bus_100 Bus2=Bus_101 LineCode=AB Length=0.1  units=km
New Line.Line_102 Phases=3 BaseFreq=50 Bus1=Bus_101 Bus2=Bus_102 LineCode=AB Length=0.1  units=km
New Line.Line_103 Phases=3 BaseFreq=50 Bus1=Bus_102 Bus2=Bus_103 LineCode=AB Length=0.1  units=km
New Line.Line_104 Phases=3 BaseFreq=50 Bus1=Bus_103 Bus2=Bus_104 LineCode=AB Length=0.1  units=km
New Line.Line_105 Phases=3 BaseFreq=50 Bus1=Bus_104 Bus2=Bus_105 LineCode=AB Length=0.1  units=km
New Line.Line_106 Phases=3 BaseFreq=50 Bus1=Bus_105 Bus2=Bus_106 LineCode=AB Length=0.1  units=km
New Line.Line_107 Phases=3 BaseFreq=50 Bus1=Bus_106 Bus2=Bus_107 LineCode=AB Length=0.1  units=km
New Line.Line_108 Phases=3 BaseFreq=50 Bus1=Bus_107 Bus2=Bus_108 LineCode=AB Length=0.1  units=km
New Line.Line_109 Phases=3 BaseFreq=50 Bus1=Bus_108 Bus2=Bus_109 LineCode=AB Length=0.1  units=km
New Line.Line_110 Phases=3 BaseFreq=50 Bus1=Bus_109 Bus2=Bus_110 LineCode=AB Length=0.1  units=km
New Line.Line_111 Phases=3 BaseFreq=50 Bus1=Bus_110 Bus2=Bus_111 LineCode=AB Length=0.1  units=km
New Line.Line_112 Phases=3 BaseFreq=50 Bus1=Bus_111 Bus2=Bus_112 LineCode=AB Length=0.1  units=km
New Line.Line_113 Phases=3 BaseFreq=50 Bus1=Bus_112 Bus2=Bus_113 LineCode=AB Length=0.1  units=km
New Line.Line_114 Phases=3 BaseFreq=50 Bus1=Bus_113 Bus2=Bus_114 LineCode=AB Length=0.1  units=km
New Line.Line_115 Phases=3 BaseFreq=50 Bus1=Bus_114 Bus2=Bus_115 LineCode=AB Length=0.1  units=km
New Line.Line_116 Phases=3 BaseFreq=50 Bus1=Bus_115 Bus2=Bus_116 LineCode=AB Length=0.1  units=km
New Line.Line_117 Phases=3 BaseFreq=50 Bus1=Bus_116 Bus2=Bus_117 LineCode=AB Length=0.1  units=km
New Line.Line_118 Phases=3 BaseFreq=50 Bus1=Bus_117 Bus2=Bus_118 LineCode=AB Length=0.1  units=km
New Line.Line_119 Phases=3 BaseFreq=50 Bus1=Bus_118 Bus2=Bus_119 LineCode=AB Length=0.1  units=km
New Line.Line_120 Phases=3 BaseFreq=50 Bus1=Bus_119 Bus2=Bus_120 LineCode=AB Length=0.1  units=km
New Line.Line_121 Phases=3 BaseFreq=50 Bus1=Bus_120 Bus2=Bus_121 LineCode=AB Length=0.1  units=km
New Line.Line_122 Phases=3 BaseFreq=50 Bus1=Bus_121 Bus2=Bus_122 LineCode=AB Length=0.1  units=km
New Line.Line_123 Phases=3 BaseFreq=50 Bus1=Bus_122 Bus2=Bus_123 LineCode=AB Length=0.1  units=km
New Line.Line_124 Phases=3 BaseFreq=50 Bus1=Bus_123 Bus2=Bus_124 LineCode=AB Length=0.1  units=km
New Line.Line_125 Phases=3 BaseFreq=50 Bus1=Bus_124 Bus2=Bus_125 LineCode=AB Length=0.1  units=km
New Line.Line_126 Phases=3 BaseFreq=50 Bus1=Bus_125 Bus2=Bus_126 LineCode=AB Length=0.1  units=km
New Line.Line_127 Phases=3 BaseFreq=50 Bus1=Bus_126 Bus2=Bus_127 LineCode=AB Length=0.1  units=km
New Line.Line_128 Phases=3 BaseFreq=50 Bus1=Bus_127 Bus2=Bus_128 LineCode=AB Length=0.1  units=km
New Line.Line_129 Phases=3 BaseFreq=50 Bus1=Bus_128 Bus2=Bus_129 LineCode=AB Length=0.1  units=km
New Line.Line_130 Phases=3 BaseFreq=50 Bus1=Bus_129 Bus2=Bus_130 LineCode=AB Length=0.1  units=km
New Line.Line_131 Phases=3 BaseFreq=50 Bus1=Bus_130 Bus2=Bus_131 LineCode=AB Length=0.1  units=km
New Line.Line_132 Phases=3 BaseFreq=50 Bus1=Bus_131 Bus2=Bus_132 LineCode=AB Length=0.1  units=km
New Line.Line_133 Phases=3 BaseFreq=50 Bus1=Bus_132 Bus2=Bus_133 LineCode=AB Length=0.1  units=km
New Line.Line_134 Phases=3 BaseFreq=50 Bus1=Bus_133 Bus2=Bus_134 LineCode=AB Length=0.1  units=km
New Line.Line_135 Phases=3 BaseFreq=50 Bus1=Bus_134 Bus2=Bus_135 LineCode=AB Length=0.1  units=km
New Line.Line_136 Phases=3 BaseFreq=50 Bus1=Bus_135 Bus2=Bus_136 LineCode=AB Length=0.1  units=km
New Line.Line_137 Phases=3 BaseFreq=50 Bus1=Bus_136 Bus2=Bus_137 LineCode=AB Length=0.1  units=km
New Line.Line_138 Phases=3 BaseFreq=50 Bus1=Bus_137 Bus2=Bus_138 LineCode=AB Length=0.1  units=km
New Line.Line_139 Phases=3 BaseFreq=50 Bus1=Bus_138 Bus2=Bus_139 LineCode=AB Length=0.1  units=km
New Line.Line_140 Phases=3 BaseFreq=50 Bus1=Bus_139 Bus2=Bus_140 LineCode=AB Length=0.1  units=km
New Line.Line_141 Phases=3 BaseFreq=50 Bus1=Bus_140 Bus2=Bus_141 LineCode=AB Length=0.1  units=km
New Line.Line_142 Phases=3 BaseFreq=50 Bus1=Bus_141 Bus2=Bus_142 LineCode=AB Length=0.1  units=km
New Line.Line_143 Phases=3 BaseFreq=50 Bus1=Bus_142 Bus2=Bus_143 LineCode=AB Length=0.1  units=km
New Line.Line_144 Phases=3 BaseFreq=50 Bus1=Bus_1012 Bus2=Bus_144 LineCode=AB Length=0.1  units=km
New Line.Line_145 Phases=3 BaseFreq=50 Bus1=Bus_144 Bus2=Bus_145 LineCode=AB Length=0.1  units=km
New Line.Line_146 Phases=3 BaseFreq=50 Bus1=Bus_145 Bus2=Bus_146 LineCode=AB Length=0.1  units=km
New Line.Line_147 Phases=3 BaseFreq=50 Bus1=Bus_146 Bus2=Bus_147 LineCode=AB Length=0.1  units=km
New Line.Line_148 Phases=3 BaseFreq=50 Bus1=Bus_147 Bus2=Bus_148 LineCode=AB Length=0.1  units=km
New Line.Line_149 Phases=3 BaseFreq=50 Bus1=Bus_148 Bus2=Bus_149 LineCode=AB Length=0.1  units=km
New Line.Line_150 Phases=3 BaseFreq=50 Bus1=Bus_149 Bus2=Bus_150 LineCode=AB Length=0.1  units=km
New Line.Line_151 Phases=3 BaseFreq=50 Bus1=Bus_150 Bus2=Bus_151 LineCode=AB Length=0.1  units=km
New Line.Line_152 Phases=3 BaseFreq=50 Bus1=Bus_151 Bus2=Bus_152 LineCode=AB Length=0.1  units=km
New Line.Line_153 Phases=3 BaseFreq=50 Bus1=Bus_152 Bus2=Bus_153 LineCode=AB Length=0.1  units=km
New Line.Line_154 Phases=3 BaseFreq=50 Bus1=Bus_153 Bus2=Bus_154 LineCode=AB Length=0.1  units=km
New Line.Line_155 Phases=3 BaseFreq=50 Bus1=Bus_154 Bus2=Bus_155 LineCode=AB Length=0.1  units=km
New Line.Line_156 Phases=3 BaseFreq=50 Bus1=Bus_155 Bus2=Bus_156 LineCode=AB Length=0.1  units=km
New Line.Line_157 Phases=3 BaseFreq=50 Bus1=Bus_156 Bus2=Bus_157 LineCode=AB Length=0.1  units=km
New Line.Line_158 Phases=3 BaseFreq=50 Bus1=Bus_157 Bus2=Bus_158 LineCode=AB Length=0.1  units=km
New Line.Line_159 Phases=3 BaseFreq=50 Bus1=Bus_158 Bus2=Bus_159 LineCode=AB Length=0.1  units=km
New Line.Line_160 Phases=3 BaseFreq=50 Bus1=Bus_159 Bus2=Bus_160 LineCode=AB Length=0.1  units=km
New Line.Line_161 Phases=3 BaseFreq=50 Bus1=Bus_160 Bus2=Bus_161 LineCode=AB Length=0.1  units=km
New Line.Line_162 Phases=3 BaseFreq=50 Bus1=Bus_161 Bus2=Bus_162 LineCode=AB Length=0.1  units=km
New Line.Line_163 Phases=3 BaseFreq=50 Bus1=Bus_162 Bus2=Bus_163 LineCode=AB Length=0.1  units=km
New Line.Line_164 Phases=3 BaseFreq=50 Bus1=Bus_163 Bus2=Bus_164 LineCode=AB Length=0.1  units=km
New Line.Line_165 Phases=3 BaseFreq=50 Bus1=Bus_164 Bus2=Bus_165 LineCode=AB Length=0.1  units=km
New Line.Line_166 Phases=3 BaseFreq=50 Bus1=Bus_165 Bus2=Bus_166 LineCode=AB Length=0.1  units=km
New Line.Line_167 Phases=3 BaseFreq=50 Bus1=Bus_166 Bus2=Bus_167 LineCode=AB Length=0.1  units=km
New Line.Line_168 Phases=3 BaseFreq=50 Bus1=Bus_167 Bus2=Bus_168 LineCode=AB Length=0.1  units=km
New Line.Line_169 Phases=3 BaseFreq=50 Bus1=Bus_168 Bus2=Bus_169 LineCode=AB Length=0.1  units=km
New Line.Line_170 Phases=3 BaseFreq=50 Bus1=Bus_169 Bus2=Bus_170 LineCode=AB Length=0.1  units=km
New Line.Line_171 Phases=3 BaseFreq=50 Bus1=Bus_170 Bus2=Bus_171 LineCode=AB Length=0.1  units=km
New Line.Line_172 Phases=3 BaseFreq=50 Bus1=Bus_171 Bus2=Bus_172 LineCode=AB Length=0.1  units=km
New Line.Line_173 Phases=3 BaseFreq=50 Bus1=Bus_172 Bus2=Bus_173 LineCode=AB Length=0.1  units=km
New Line.Line_174 Phases=3 BaseFreq=50 Bus1=Bus_173 Bus2=Bus_174 LineCode=AB Length=0.1  units=km
New Line.Line_175 Phases=3 BaseFreq=50 Bus1=Bus_174 Bus2=Bus_175 LineCode=AB Length=0.1  units=km
New Line.Line_176 Phases=3 BaseFreq=50 Bus1=Bus_175 Bus2=Bus_176 LineCode=AB Length=0.1  units=km
New Line.Line_177 Phases=3 BaseFreq=50 Bus1=Bus_176 Bus2=Bus_177 LineCode=AB Length=0.1  units=km
New Line.Line_178 Phases=3 BaseFreq=50 Bus1=Bus_177 Bus2=Bus_178 LineCode=AB Length=0.1  units=km
New Line.Line_179 Phases=3 BaseFreq=50 Bus1=Bus_178 Bus2=Bus_179 LineCode=AB Length=0.1  units=km
New Line.Line_180 Phases=3 BaseFreq=50 Bus1=Bus_179 Bus2=Bus_180 LineCode=AB Length=0.1  units=km
New Line.Line_181 Phases=3 BaseFreq=50 Bus1=Bus_180 Bus2=Bus_181 LineCode=AB Length=0.1  units=km
New Line.Line_182 Phases=3 BaseFreq=50 Bus1=Bus_181 Bus2=Bus_182 LineCode=AB Length=0.1  units=km
New Line.Line_183 Phases=3 BaseFreq=50 Bus1=Bus_182 Bus2=Bus_183 LineCode=AB Length=0.1  units=km
New Line.Line_184 Phases=3 BaseFreq=50 Bus1=Bus_183 Bus2=Bus_184 LineCode=AB Length=0.1  units=km
New Line.Line_185 Phases=3 BaseFreq=50 Bus1=Bus_184 Bus2=Bus_185 LineCode=AB Length=0.1  units=km
New Line.Line_186 Phases=3 BaseFreq=50 Bus1=Bus_185 Bus2=Bus_186 LineCode=AB Length=0.1  units=km
New Line.Line_187 Phases=3 BaseFreq=50 Bus1=Bus_186 Bus2=Bus_187 LineCode=AB Length=0.1  units=km
New Line.Line_188 Phases=3 BaseFreq=50 Bus1=Bus_187 Bus2=Bus_188 LineCode=AB Length=0.1  units=km
New Line.Line_189 Phases=3 BaseFreq=50 Bus1=Bus_188 Bus2=Bus_189 LineCode=AB Length=0.1  units=km
New Line.Line_190 Phases=3 BaseFreq=50 Bus1=Bus_189 Bus2=Bus_190 LineCode=AB Length=0.1  units=km
New Line.Line_191 Phases=3 BaseFreq=50 Bus1=Bus_1013 Bus2=Bus_191 LineCode=AB Length=0.1  units=km
New Line.Line_192 Phases=3 BaseFreq=50 Bus1=Bus_191 Bus2=Bus_192 LineCode=AB Length=0.1  units=km
New Line.Line_193 Phases=3 BaseFreq=50 Bus1=Bus_192 Bus2=Bus_193 LineCode=AB Length=0.1  units=km
New Line.Line_194 Phases=3 BaseFreq=50 Bus1=Bus_193 Bus2=Bus_194 LineCode=AB Length=0.1  units=km
New Line.Line_195 Phases=3 BaseFreq=50 Bus1=Bus_194 Bus2=Bus_195 LineCode=AB Length=0.1  units=km
New Line.Line_196 Phases=3 BaseFreq=50 Bus1=Bus_195 Bus2=Bus_196 LineCode=AB Length=0.1  units=km
New Line.Line_197 Phases=3 BaseFreq=50 Bus1=Bus_196 Bus2=Bus_197 LineCode=AB Length=0.1  units=km
New Line.Line_198 Phases=3 BaseFreq=50 Bus1=Bus_197 Bus2=Bus_198 LineCode=AB Length=0.1  units=km
New Line.Line_199 Phases=3 BaseFreq=50 Bus1=Bus_198 Bus2=Bus_199 LineCode=AB Length=0.1  units=km
New Line.Line_200 Phases=3 BaseFreq=50 Bus1=Bus_199 Bus2=Bus_200 LineCode=AB Length=0.1  units=km
...


!FEEDER_2

New Line.Line_253 Phases=3 BaseFreq=50 Bus1=Bus_1015 Bus2=Bus_253 LineCode=AB Length=0.1  units=km
New Line.Line_254 Phases=3 BaseFreq=50 Bus1=Bus_253 Bus2=Bus_254 LineCode=AB Length=0.1  units=km
New Line.Line_255 Phases=3 BaseFreq=50 Bus1=Bus_254 Bus2=Bus_255 LineCode=AB Length=0.1  units=km
New Line.Line_256 Phases=3 BaseFreq=50 Bus1=Bus_255 Bus2=Bus_256 LineCode=AB Length=0.1  units=km
New Line.Line_257 Phases=3 BaseFreq=50 Bus1=Bus_256 Bus2=Bus_257 LineCode=AB Length=0.1  units=km
New Line.Line_258 Phases=3 BaseFreq=50 Bus1=Bus_257 Bus2=Bus_258 LineCode=AB Length=0.1  units=km
New Line.Line_259 Phases=3 BaseFreq=50 Bus1=Bus_258 Bus2=Bus_259 LineCode=AB Length=0.1  units=km
New Line.Line_260 Phases=3 BaseFreq=50 Bus1=Bus_259 Bus2=Bus_260 LineCode=AB Length=0.1  units=km
New Line.Line_261 Phases=3 BaseFreq=50 Bus1=Bus_260 Bus2=Bus_261 LineCode=AB Length=0.1  units=km
New Line.Line_262 Phases=3 BaseFreq=50 Bus1=Bus_261 Bus2=Bus_262 LineCode=AB Length=0.1  units=km
New Line.Line_263 Phases=3 BaseFreq=50 Bus1=Bus_262 Bus2=Bus_263 LineCode=AB Length=0.1  units=km
New Line.Line_264 Phases=3 BaseFreq=50 Bus1=Bus_263 Bus2=Bus_264 LineCode=AB Length=0.1  units=km
New Line.Line_265 Phases=3 BaseFreq=50 Bus1=Bus_264 Bus2=Bus_265 LineCode=AB Length=0.1  units=km
New Line.Line_266 Phases=3 BaseFreq=50 Bus1=Bus_265 Bus2=Bus_266 LineCode=AB Length=0.1  units=km
New Line.Line_267 Phases=3 BaseFreq=50 Bus1=Bus_266 Bus2=Bus_267 LineCode=AB Length=0.1  units=km
New Line.Line_268 Phases=3 BaseFreq=50 Bus1=Bus_267 Bus2=Bus_268 LineCode=AB Length=0.1  units=km
New Line.Line_269 Phases=3 BaseFreq=50 Bus1=Bus_268 Bus2=Bus_269 LineCode=AB Length=0.1  units=km
New Line.Line_270 Phases=3 BaseFreq=50 Bus1=Bus_269 Bus2=Bus_270 LineCode=AB Length=0.1  units=km
New Line.Line_271 Phases=3 BaseFreq=50 Bus1=Bus_270 Bus2=Bus_271 LineCode=AB Length=0.1  units=km
New Line.Line_272 Phases=3 BaseFreq=50 Bus1=Bus_271 Bus2=Bus_272 LineCode=AB Length=0.1  units=km
New Line.Line_273 Phases=3 BaseFreq=50 Bus1=Bus_272 Bus2=Bus_273 LineCode=AB Length=0.1  units=km
New Line.Line_274 Phases=3 BaseFreq=50 Bus1=Bus_273 Bus2=Bus_274 LineCode=AB Length=0.1  units=km
New Line.Line_275 Phases=3 BaseFreq=50 Bus1=Bus_274 Bus2=Bus_275 LineCode=AB Length=0.1  units=km
New Line.Line_276 Phases=3 BaseFreq=50 Bus1=Bus_275 Bus2=Bus_276 LineCode=AB Length=0.1  units=km
New Line.Line_277 Phases=3 BaseFreq=50 Bus1=Bus_276 Bus2=Bus_277 LineCode=AB Length=0.1  units=km
New Line.Line_278 Phases=3 BaseFreq=50 Bus1=Bus_277 Bus2=Bus_278 LineCode=AB Length=0.1  units=km
New Line.Line_279 Phases=3 BaseFreq=50 Bus1=Bus_278 Bus2=Bus_279 LineCode=AB Length=0.1  units=km
New Line.Line_280 Phases=3 BaseFreq=50 Bus1=Bus_279 Bus2=Bus_280 LineCode=AB Length=0.1  units=km
New Line.Line_281 Phases=3 BaseFreq=50 Bus1=Bus_280 Bus2=Bus_281 LineCode=AB Length=0.1  units=km
New Line.Line_282 Phases=3 BaseFreq=50 Bus1=Bus_281 Bus2=Bus_282 LineCode=AB Length=0.1  units=km
New Line.Line_283 Phases=3 BaseFreq=50 Bus1=Bus_282 Bus2=Bus_283 LineCode=AB Length=0.1  units=km
New Line.Line_284 Phases=3 BaseFreq=50 Bus1=Bus_283 Bus2=Bus_284 LineCode=AB Length=0.1  units=km
New Line.Line_285 Phases=3 BaseFreq=50 Bus1=Bus_284 Bus2=Bus_285 LineCode=AB Length=0.1  units=km
New Line.Line_286 Phases=3 BaseFreq=50 Bus1=Bus_285 Bus2=Bus_286 LineCode=AB Length=0.1  units=km
New Line.Line_287 Phases=3 BaseFreq=50 Bus1=Bus_286 Bus2=Bus_287 LineCode=AB Length=0.1  units=km
New Line.Line_288 Phases=3 BaseFreq=50 Bus1=Bus_287 Bus2=Bus_288 LineCode=AB Length=0.1  units=km
New Line.Line_289 Phases=3 BaseFreq=50 Bus1=Bus_288 Bus2=Bus_289 LineCode=AB Length=0.1  units=km
New Line.Line_290 Phases=3 BaseFreq=50 Bus1=Bus_289 Bus2=Bus_290 LineCode=AB Length=0.1  units=km
New Line.Line_291 Phases=3 BaseFreq=50 Bus1=Bus_290 Bus2=Bus_291 LineCode=AB Length=0.1  units=km
New Line.Line_292 Phases=3 BaseFreq=50 Bus1=Bus_291 Bus2=Bus_292 LineCode=AB Length=0.1  units=km
New Line.Line_293 Phases=3 BaseFreq=50 Bus1=Bus_292 Bus2=Bus_293 LineCode=AB Length=0.1  units=km
New Line.Line_294 Phases=3 BaseFreq=50 Bus1=Bus_293 Bus2=Bus_294 LineCode=AB Length=0.1  units=km
New Line.Line_295 Phases=3 BaseFreq=50 Bus1=Bus_294 Bus2=Bus_295 LineCode=AB Length=0.1  units=km
New Line.Line_296 Phases=3 BaseFreq=50 Bus1=Bus_295 Bus2=Bus_296 LineCode=AB Length=0.1  units=km
New Line.Line_297 Phases=3 BaseFreq=50 Bus1=Bus_296 Bus2=Bus_297 LineCode=AB Length=0.1  units=km
New Line.Line_298 Phases=3 BaseFreq=50 Bus1=Bus_297 Bus2=Bus_298 LineCode=AB Length=0.1  units=km
New Line.Line_299 Phases=3 BaseFreq=50 Bus1=Bus_298 Bus2=Bus_299 LineCode=AB Length=0.1  units=km
New Line.Line_300 Phases=3 BaseFreq=50 Bus1=Bus_299 Bus2=Bus_300 LineCode=AB Length=0.1  units=km
New Line.Line_301 Phases=3 BaseFreq=50 Bus1=Bus_300 Bus2=Bus_301 LineCode=AB Length=0.1  units=km
New Line.Line_302 Phases=3 BaseFreq=50 Bus1=Bus_1016 Bus2=Bus_302 LineCode=AB Length=0.1  units=km
New Line.Line_303 Phases=3 BaseFreq=50 Bus1=Bus_302 Bus2=Bus_303 LineCode=AB Length=0.1  units=km
New Line.Line_304 Phases=3 BaseFreq=50 Bus1=Bus_303 Bus2=Bus_304 LineCode=AB Length=0.1  units=km
New Line.Line_305 Phases=3 BaseFreq=50 Bus1=Bus_304 Bus2=Bus_305 LineCode=AB Length=0.1  units=km
New Line.Line_306 Phases=3 BaseFreq=50 Bus1=Bus_305 Bus2=Bus_306 LineCode=AB Length=0.1  units=km
New Line.Line_307 Phases=3 BaseFreq=50 Bus1=Bus_306 Bus2=Bus_307 LineCode=AB Length=0.1  units=km
New Line.Line_308 Phases=3 BaseFreq=50 Bus1=Bus_307 Bus2=Bus_308 LineCode=AB Length=0.1  units=km
New Line.Line_309 Phases=3 BaseFreq=50 Bus1=Bus_308 Bus2=Bus_309 LineCode=AB Length=0.1  units=km
New Line.Line_310 Phases=3 BaseFreq=50 Bus1=Bus_309 Bus2=Bus_310 LineCode=AB Length=0.1  units=km
New Line.Line_311 Phases=3 BaseFreq=50 Bus1=Bus_310 Bus2=Bus_311 LineCode=AB Length=0.1  units=km
New Line.Line_312 Phases=3 BaseFreq=50 Bus1=Bus_311 Bus2=Bus_312 LineCode=AB Length=0.1  units=km
New Line.Line_313 Phases=3 BaseFreq=50 Bus1=Bus_312 Bus2=Bus_313 LineCode=AB Length=0.1  units=km
New Line.Line_314 Phases=3 BaseFreq=50 Bus1=Bus_313 Bus2=Bus_314 LineCode=AB Length=0.1  units=km
New Line.Line_315 Phases=3 BaseFreq=50 Bus1=Bus_314 Bus2=Bus_315 LineCode=AB Length=0.1  units=km
New Line.Line_316 Phases=3 BaseFreq=50 Bus1=Bus_315 Bus2=Bus_316 LineCode=AB Length=0.1  units=km
New Line.Line_317 Phases=3 BaseFreq=50 Bus1=Bus_316 Bus2=Bus_317 LineCode=AB Length=0.1  units=km
New Line.Line_318 Phases=3 BaseFreq=50 Bus1=Bus_317 Bus2=Bus_318 LineCode=AB Length=0.1  units=km
New Line.Line_319 Phases=3 BaseFreq=50 Bus1=Bus_318 Bus2=Bus_319 LineCode=AB Length=0.1  units=km
New Line.Line_320 Phases=3 BaseFreq=50 Bus1=Bus_319 Bus2=Bus_320 LineCode=AB Length=0.1  units=km
New Line.Line_321 Phases=3 BaseFreq=50 Bus1=Bus_320 Bus2=Bus_321 LineCode=AB Length=0.1  units=km
New Line.Line_322 Phases=3 BaseFreq=50 Bus1=Bus_321 Bus2=Bus_322 LineCode=AB Length=0.1  units=km
New Line.Line_323 Phases=3 BaseFreq=50 Bus1=Bus_322 Bus2=Bus_323 LineCode=AB Length=0.1  units=km
New Line.Line_324 Phases=3 BaseFreq=50 Bus1=Bus_323 Bus2=Bus_324 LineCode=AB Length=0.1  units=km
New Line.Line_325 Phases=3 BaseFreq=50 Bus1=Bus_324 Bus2=Bus_325 LineCode=AB Length=0.1  units=km
New Line.Line_326 Phases=3 BaseFreq=50 Bus1=Bus_325 Bus2=Bus_326 LineCode=AB Length=0.1  units=km
New Line.Line_327 Phases=3 BaseFreq=50 Bus1=Bus_326 Bus2=Bus_327 LineCode=AB Length=0.1  units=km
New Line.Line_328 Phases=3 BaseFreq=50 Bus1=Bus_327 Bus2=Bus_328 LineCode=AB Length=0.1  units=km
New Line.Line_329 Phases=3 BaseFreq=50 Bus1=Bus_328 Bus2=Bus_329 LineCode=AB Length=0.1  units=km
New Line.Line_330 Phases=3 BaseFreq=50 Bus1=Bus_329 Bus2=Bus_330 LineCode=AB Length=0.1  units=km
New Line.Line_331 Phases=3 BaseFreq=50 Bus1=Bus_330 Bus2=Bus_331 LineCode=AB Length=0.1  units=km
New Line.Line_332 Phases=3 BaseFreq=50 Bus1=Bus_331 Bus2=Bus_332 LineCode=AB Length=0.1  units=km
New Line.Line_333 Phases=3 BaseFreq=50 Bus1=Bus_332 Bus2=Bus_333 LineCode=AB Length=0.1  units=km
New Line.Line_334 Phases=3 BaseFreq=50 Bus1=Bus_333 Bus2=Bus_334 LineCode=AB Length=0.1  units=km
New Line.Line_335 Phases=3 BaseFreq=50 Bus1=Bus_334 Bus2=Bus_335 LineCode=AB Length=0.1  units=km
New Line.Line_336 Phases=3 BaseFreq=50 Bus1=Bus_335 Bus2=Bus_336 LineCode=AB Length=0.1  units=km
New Line.Line_337 Phases=3 BaseFreq=50 Bus1=Bus_336 Bus2=Bus_337 LineCode=AB Length=0.1  units=km
New Line.Line_338 Phases=3 BaseFreq=50 Bus1=Bus_337 Bus2=Bus_338 LineCode=AB Length=0.1  units=km
New Line.Line_339 Phases=3 BaseFreq=50 Bus1=Bus_338 Bus2=Bus_339 LineCode=AB Length=0.1  units=km
New Line.Line_340 Phases=3 BaseFreq=50 Bus1=Bus_339 Bus2=Bus_340 LineCode=AB Length=0.1  units=km
New Line.Line_341 Phases=3 BaseFreq=50 Bus1=Bus_340 Bus2=Bus_341 LineCode=AB Length=0.1  units=km
New Line.Line_342 Phases=3 BaseFreq=50 Bus1=Bus_341 Bus2=Bus_342 LineCode=AB Length=0.1  units=km
New Line.Line_343 Phases=3 BaseFreq=50 Bus1=Bus_342 Bus2=Bus_343 LineCode=AB Length=0.1  units=km
New Line.Line_344 Phases=3 BaseFreq=50 Bus1=Bus_343 Bus2=Bus_344 LineCode=AB Length=0.1  units=km
New Line.Line_345 Phases=3 BaseFreq=50 Bus1=Bus_344 Bus2=Bus_345 LineCode=AB Length=0.1  units=km
New Line.Line_346 Phases=3 BaseFreq=50 Bus1=Bus_345 Bus2=Bus_346 LineCode=AB Length=0.1  units=km
New Line.Line_347 Phases=3 BaseFreq=50 Bus1=Bus_346 Bus2=Bus_347 LineCode=AB Length=0.1  units=km
New Line.Line_348 Phases=3 BaseFreq=50 Bus1=Bus_347 Bus2=Bus_348 LineCode=AB Length=0.1  units=km
New Line.Line_349 Phases=3 BaseFreq=50 Bus1=Bus_1017 Bus2=Bus_349 LineCode=AB Length=0.1  units=km
New Line.Line_350 Phases=3 BaseFreq=50 Bus1=Bus_349 Bus2=Bus_350 LineCode=AB Length=0.1  units=km
New Line.Line_351 Phases=3 BaseFreq=50 Bus1=Bus_350 Bus2=Bus_351 LineCode=AB Length=0.1  units=km
New Line.Line_352 Phases=3 BaseFreq=50 Bus1=Bus_351 Bus2=Bus_352 LineCode=AB Length=0.1  units=km
New Line.Line_353 Phases=3 BaseFreq=50 Bus1=Bus_352 Bus2=Bus_353 LineCode=AB Length=0.1  units=km
New Line.Line_354 Phases=3 BaseFreq=50 Bus1=Bus_353 Bus2=Bus_354 LineCode=AB Length=0.1  units=km
New Line.Line_355 Phases=3 BaseFreq=50 Bus1=Bus_354 Bus2=Bus_355 LineCode=AB Length=0.1  units=km
New Line.Line_356 Phases=3 BaseFreq=50 Bus1=Bus_355 Bus2=Bus_356 LineCode=AB Length=0.1  units=km
New Line.Line_357 Phases=3 BaseFreq=50 Bus1=Bus_356 Bus2=Bus_357 LineCode=AB Length=0.1  units=km
New Line.Line_358 Phases=3 BaseFreq=50 Bus1=Bus_357 Bus2=Bus_358 LineCode=AB Length=0.1  units=km
New Line.Line_359 Phases=3 BaseFreq=50 Bus1=Bus_358 Bus2=Bus_359 LineCode=AB Length=0.1  units=km
New Line.Line_360 Phases=3 BaseFreq=50 Bus1=Bus_359 Bus2=Bus_360 LineCode=AB Length=0.1  units=km
New Line.Line_361 Phases=3 BaseFreq=50 Bus1=Bus_360 Bus2=Bus_361 LineCode=AB Length=0.1  units=km
New Line.Line_362 Phases=3 BaseFreq=50 Bus1=Bus_361 Bus2=Bus_362 LineCode=AB Length=0.1  units=km
New Line.Line_363 Phases=3 BaseFreq=50 Bus1=Bus_362 Bus2=Bus_363 LineCode=AB Length=0.1  units=km
New Line.Line_364 Phases=3 BaseFreq=50 Bus1=Bus_363 Bus2=Bus_364 LineCode=AB Length=0.1  units=km
New Line.Line_365 Phases=3 BaseFreq=50 Bus1=Bus_364 Bus2=Bus_365 LineCode=AB Length=0.1  units=km
New Line.Line_366 Phases=3 BaseFreq=50 Bus1=Bus_365 Bus2=Bus_366 LineCode=AB Length=0.1  units=km
New Line.Line_367 Phases=3 BaseFreq=50 Bus1=Bus_366 Bus2=Bus_367 LineCode=AB Length=0.1  units=km
New Line.Line_368 Phases=3 BaseFreq=50 Bus1=Bus_367 Bus2=Bus_368 LineCode=AB Length=0.1  units=km
New Line.Line_369 Phases=3 BaseFreq=50 Bus1=Bus_368 Bus2=Bus_369 LineCode=AB Length=0.1  units=km
New Line.Line_370 Phases=3 BaseFreq=50 Bus1=Bus_369 Bus2=Bus_370 LineCode=AB Length=0.1  units=km
New Line.Line_371 Phases=3 BaseFreq=50 Bus1=Bus_370 Bus2=Bus_371 LineCode=AB Length=0.1  units=km
New Line.Line_372 Phases=3 BaseFreq=50 Bus1=Bus_371 Bus2=Bus_372 LineCode=AB Length=0.1  units=km
New Line.Line_373 Phases=3 BaseFreq=50 Bus1=Bus_372 Bus2=Bus_373 LineCode=AB Length=0.1  units=km
New Line.Line_374 Phases=3 BaseFreq=50 Bus1=Bus_373 Bus2=Bus_374 LineCode=AB Length=0.1  units=km
New Line.Line_375 Phases=3 BaseFreq=50 Bus1=Bus_374 Bus2=Bus_375 LineCode=AB Length=0.1  units=km
New Line.Line_376 Phases=3 BaseFreq=50 Bus1=Bus_375 Bus2=Bus_376 LineCode=AB Length=0.1  units=km
New Line.Line_377 Phases=3 BaseFreq=50 Bus1=Bus_376 Bus2=Bus_377 LineCode=AB Length=0.1  units=km
New Line.Line_378 Phases=3 BaseFreq=50 Bus1=Bus_377 Bus2=Bus_378 LineCode=AB Length=0.1  units=km
New Line.Line_379 Phases=3 BaseFreq=50 Bus1=Bus_378 Bus2=Bus_379 LineCode=AB Length=0.1  units=km
New Line.Line_380 Phases=3 BaseFreq=50 Bus1=Bus_379 Bus2=Bus_380 LineCode=AB Length=0.1  units=km
New Line.Line_381 Phases=3 BaseFreq=50 Bus1=Bus_380 Bus2=Bus_381 LineCode=AB Length=0.1  units=km
New Line.Line_382 Phases=3 BaseFreq=50 Bus1=Bus_381 Bus2=Bus_382 LineCode=AB Length=0.1  units=km
New Line.Line_383 Phases=3 BaseFreq=50 Bus1=Bus_382 Bus2=Bus_383 LineCode=AB Length=0.1  units=km
New Line.Line_384 Phases=3 BaseFreq=50 Bus1=Bus_383 Bus2=Bus_384 LineCode=AB Length=0.1  units=km
New Line.Line_385 Phases=3 BaseFreq=50 Bus1=Bus_384 Bus2=Bus_385 LineCode=AB Length=0.1  units=km
New Line.Line_386 Phases=3 BaseFreq=50 Bus1=Bus_385 Bus2=Bus_386 LineCode=AB Length=0.1  units=km
New Line.Line_387 Phases=3 BaseFreq=50 Bus1=Bus_386 Bus2=Bus_387 LineCode=AB Length=0.1  units=km
New Line.Line_388 Phases=3 BaseFreq=50 Bus1=Bus_387 Bus2=Bus_388 LineCode=AB Length=0.1  units=km
New Line.Line_389 Phases=3 BaseFreq=50 Bus1=Bus_388 Bus2=Bus_389 LineCode=AB Length=0.1  units=km
New Line.Line_390 Phases=3 BaseFreq=50 Bus1=Bus_389 Bus2=Bus_390 LineCode=AB Length=0.1  units=km
New Line.Line_391 Phases=3 BaseFreq=50 Bus1=Bus_390 Bus2=Bus_391 LineCode=AB Length=0.1  units=km
New Line.Line_392 Phases=3 BaseFreq=50 Bus1=Bus_391 Bus2=Bus_392 LineCode=AB Length=0.1  units=km
New Line.Line_393 Phases=3 BaseFreq=50 Bus1=Bus_392 Bus2=Bus_393 LineCode=AB Length=0.1  units=km
New Line.Line_394 Phases=3 BaseFreq=50 Bus1=Bus_393 Bus2=Bus_394 LineCode=AB Length=0.1  units=km
New Line.Line_395 Phases=3 BaseFreq=50 Bus1=Bus_394 Bus2=Bus_395 LineCode=AB Length=0.1  units=km
New Line.Line_396 Phases=3 BaseFreq=50 Bus1=Bus_1018 Bus2=Bus_396 LineCode=AB Length=0.1  units=km
New Line.Line_397 Phases=3 BaseFreq=50 Bus1=Bus_396 Bus2=Bus_397 LineCode=AB Length=0.1  units=km
New Line.Line_398 Phases=3 BaseFreq=50 Bus1=Bus_397 Bus2=Bus_398 LineCode=AB Length=0.1  units=km
New Line.Line_399 Phases=3 BaseFreq=50 Bus1=Bus_398 Bus2=Bus_399 LineCode=AB Length=0.1  units=km
New Line.Line_400 Phases=3 BaseFreq=50 Bus1=Bus_399 Bus2=Bus_400 LineCode=AB Length=0.1  units=km
New Line.Line_401 Phases=3 BaseFreq=50 Bus1=Bus_400 Bus2=Bus_401 LineCode=AB Length=0.1  units=km
New Line.Line_402 Phases=3 BaseFreq=50 Bus1=Bus_401 Bus2=Bus_402 LineCode=AB Length=0.1  units=km
New Line.Line_403 Phases=3 BaseFreq=50 Bus1=Bus_402 Bus2=Bus_403 LineCode=AB Length=0.1  units=km
New Line.Line_404 Phases=3 BaseFreq=50 Bus1=Bus_403 Bus2=Bus_404 LineCode=AB Length=0.1  units=km
New Line.Line_405 Phases=3 BaseFreq=50 Bus1=Bus_404 Bus2=Bus_405 LineCode=AB Length=0.1  units=km
New Line.Line_406 Phases=3 BaseFreq=50 Bus1=Bus_405 Bus2=Bus_406 LineCode=AB Length=0.1  units=km
New Line.Line_407 Phases=3 BaseFreq=50 Bus1=Bus_406 Bus2=Bus_407 LineCode=AB Length=0.1  units=km
New Line.Line_408 Phases=3 BaseFreq=50 Bus1=Bus_407 Bus2=Bus_408 LineCode=AB Length=0.1  units=km
New Line.Line_409 Phases=3 BaseFreq=50 Bus1=Bus_408 Bus2=Bus_409 LineCode=AB Length=0.1  units=km
New Line.Line_410 Phases=3 BaseFreq=50 Bus1=Bus_409 Bus2=Bus_410 LineCode=AB Length=0.1  units=km
New Line.Line_411 Phases=3 BaseFreq=50 Bus1=Bus_410 Bus2=Bus_411 LineCode=AB Length=0.1  units=km
New Line.Line_412 Phases=3 BaseFreq=50 Bus1=Bus_411 Bus2=Bus_412 LineCode=AB Length=0.1  units=km
New Line.Line_413 Phases=3 BaseFreq=50 Bus1=Bus_412 Bus2=Bus_413 LineCode=AB Length=0.1  units=km
New Line.Line_414 Phases=3 BaseFreq=50 Bus1=Bus_413 Bus2=Bus_414 LineCode=AB Length=0.1  units=km
New Line.Line_415 Phases=3 BaseFreq=50 Bus1=Bus_414 Bus2=Bus_415 LineCode=AB Length=0.1  units=km
New Line.Line_416 Phases=3 BaseFreq=50 Bus1=Bus_415 Bus2=Bus_416 LineCode=AB Length=0.1  units=km
New Line.Line_417 Phases=3 BaseFreq=50 Bus1=Bus_416 Bus2=Bus_417 LineCode=AB Length=0.1  units=km
New Line.Line_418 Phases=3 BaseFreq=50 Bus1=Bus_417 Bus2=Bus_418 LineCode=AB Length=0.1  units=km
New Line.Line_419 Phases=3 BaseFreq=50 Bus1=Bus_418 Bus2=Bus_419 LineCode=AB Length=0.1  units=km
New Line.Line_420 Phases=3 BaseFreq=50 Bus1=Bus_419 Bus2=Bus_420 LineCode=AB Length=0.1  units=km
New Line.Line_421 Phases=3 BaseFreq=50 Bus1=Bus_420 Bus2=Bus_421 LineCode=AB Length=0.1  units=km
New Line.Line_422 Phases=3 BaseFreq=50 Bus1=Bus_421 Bus2=Bus_422 LineCode=AB Length=0.1  units=km
New Line.Line_423 Phases=3 BaseFreq=50 Bus1=Bus_422 Bus2=Bus_423 LineCode=AB Length=0.1  units=km
New Line.Line_424 Phases=3 BaseFreq=50 Bus1=Bus_423 Bus2=Bus_424 LineCode=AB Length=0.1  units=km
New Line.Line_425 Phases=3 BaseFreq=50 Bus1=Bus_424 Bus2=Bus_425 LineCode=AB Length=0.1  units=km
New Line.Line_426 Phases=3 BaseFreq=50 Bus1=Bus_425 Bus2=Bus_426 LineCode=AB Length=0.1  units=km
New Line.Line_427 Phases=3 BaseFreq=50 Bus1=Bus_426 Bus2=Bus_427 LineCode=AB Length=0.1  units=km
New Line.Line_428 Phases=3 BaseFreq=50 Bus1=Bus_427 Bus2=Bus_428 LineCode=AB Length=0.1  units=km
New Line.Line_429 Phases=3 BaseFreq=50 Bus1=Bus_428 Bus2=Bus_429 LineCode=AB Length=0.1  units=km
New Line.Line_430 Phases=3 BaseFreq=50 Bus1=Bus_429 Bus2=Bus_430 LineCode=AB Length=0.1  units=km
New Line.Line_431 Phases=3 BaseFreq=50 Bus1=Bus_430 Bus2=Bus_431 LineCode=AB Length=0.1  units=km
New Line.Line_432 Phases=3 BaseFreq=50 Bus1=Bus_431 Bus2=Bus_432 LineCode=AB Length=0.1  units=km
New Line.Line_433 Phases=3 BaseFreq=50 Bus1=Bus_432 Bus2=Bus_433 LineCode=AB Length=0.1  units=km
New Line.Line_434 Phases=3 BaseFreq=50 Bus1=Bus_433 Bus2=Bus_434 LineCode=AB Length=0.1  units=km
New Line.Line_435 Phases=3 BaseFreq=50 Bus1=Bus_434 Bus2=Bus_435 LineCode=AB Length=0.1  units=km
New Line.Line_436 Phases=3 BaseFreq=50 Bus1=Bus_435 Bus2=Bus_436 LineCode=AB Length=0.1  units=km
New Line.Line_437 Phases=3 BaseFreq=50 Bus1=Bus_436 Bus2=Bus_437 LineCode=AB Length=0.1  units=km
New Line.Line_438 Phases=3 BaseFreq=50 Bus1=Bus_437 Bus2=Bus_438 LineCode=AB Length=0.1  units=km
New Line.Line_439 Phases=3 BaseFreq=50 Bus1=Bus_438 Bus2=Bus_439 LineCode=AB Length=0.1  units=km
New Line.Line_440 Phases=3 BaseFreq=50 Bus1=Bus_439 Bus2=Bus_440 LineCode=AB Length=0.1  units=km
New Line.Line_441 Phases=3 BaseFreq=50 Bus1=Bus_440 Bus2=Bus_441 LineCode=AB Length=0.1  units=km
New Line.Line_442 Phases=3 BaseFreq=50 Bus1=Bus_441 Bus2=Bus_442 LineCode=AB Length=0.1  units=km
New Line.Line_443 Phases=3 BaseFreq=50 Bus1=Bus_1019 Bus2=Bus_443 LineCode=AB Length=0.1  units=km
New Line.Line_444 Phases=3 BaseFreq=50 Bus1=Bus_443 Bus2=Bus_444 LineCode=AB Length=0.1  units=km
New Line.Line_445 Phases=3 BaseFreq=50 Bus1=Bus_444 Bus2=Bus_445 LineCode=AB Length=0.1  units=km
New Line.Line_446 Phases=3 BaseFreq=50 Bus1=Bus_445 Bus2=Bus_446 LineCode=AB Length=0.1  units=km
New Line.Line_447 Phases=3 BaseFreq=50 Bus1=Bus_446 Bus2=Bus_447 LineCode=AB Length=0.1  units=km
New Line.Line_448 Phases=3 BaseFreq=50 Bus1=Bus_447 Bus2=Bus_448 LineCode=AB Length=0.1  units=km
New Line.Line_449 Phases=3 BaseFreq=50 Bus1=Bus_448 Bus2=Bus_449 LineCode=AB Length=0.1  units=km
New Line.Line_450 Phases=3 BaseFreq=50 Bus1=Bus_449 Bus2=Bus_450 LineCode=AB Length=0.1  units=km
New Line.Line_451 Phases=3 BaseFreq=50 Bus1=Bus_450 Bus2=Bus_451 LineCode=AB Length=0.1  units=km
New Line.Line_452 Phases=3 BaseFreq=50 Bus1=Bus_451 Bus2=Bus_452 LineCode=AB Length=0.1  units=km
...

!FEEDER_3

New Line.Line_505 Phases=3 BaseFreq=50 Bus1=Bus_1021 Bus2=Bus_505 LineCode=AB Length=0.1  units=km
New Line.Line_506 Phases=3 BaseFreq=50 Bus1=Bus_505 Bus2=Bus_506 LineCode=AB Length=0.1  units=km
New Line.Line_507 Phases=3 BaseFreq=50 Bus1=Bus_506 Bus2=Bus_507 LineCode=AB Length=0.1  units=km
New Line.Line_508 Phases=3 BaseFreq=50 Bus1=Bus_507 Bus2=Bus_508 LineCode=AB Length=0.1  units=km
New Line.Line_509 Phases=3 BaseFreq=50 Bus1=Bus_508 Bus2=Bus_509 LineCode=AB Length=0.1  units=km
New Line.Line_510 Phases=3 BaseFreq=50 Bus1=Bus_509 Bus2=Bus_510 LineCode=AB Length=0.1  units=km
New Line.Line_511 Phases=3 BaseFreq=50 Bus1=Bus_510 Bus2=Bus_511 LineCode=AB Length=0.1  units=km
New Line.Line_512 Phases=3 BaseFreq=50 Bus1=Bus_511 Bus2=Bus_512 LineCode=AB Length=0.1  units=km
New Line.Line_513 Phases=3 BaseFreq=50 Bus1=Bus_512 Bus2=Bus_513 LineCode=AB Length=0.1  units=km
New Line.Line_514 Phases=3 BaseFreq=50 Bus1=Bus_513 Bus2=Bus_514 LineCode=AB Length=0.1  units=km
New Line.Line_515 Phases=3 BaseFreq=50 Bus1=Bus_514 Bus2=Bus_515 LineCode=AB Length=0.1  units=km
New Line.Line_516 Phases=3 BaseFreq=50 Bus1=Bus_515 Bus2=Bus_516 LineCode=AB Length=0.1  units=km
New Line.Line_517 Phases=3 BaseFreq=50 Bus1=Bus_516 Bus2=Bus_517 LineCode=AB Length=0.1  units=km
New Line.Line_518 Phases=3 BaseFreq=50 Bus1=Bus_517 Bus2=Bus_518 LineCode=AB Length=0.1  units=km
New Line.Line_519 Phases=3 BaseFreq=50 Bus1=Bus_518 Bus2=Bus_519 LineCode=AB Length=0.1  units=km
New Line.Line_520 Phases=3 BaseFreq=50 Bus1=Bus_519 Bus2=Bus_520 LineCode=AB Length=0.1  units=km
New Line.Line_521 Phases=3 BaseFreq=50 Bus1=Bus_520 Bus2=Bus_521 LineCode=AB Length=0.1  units=km
New Line.Line_522 Phases=3 BaseFreq=50 Bus1=Bus_521 Bus2=Bus_522 LineCode=AB Length=0.1  units=km
New Line.Line_523 Phases=3 BaseFreq=50 Bus1=Bus_522 Bus2=Bus_523 LineCode=AB Length=0.1  units=km
New Line.Line_524 Phases=3 BaseFreq=50 Bus1=Bus_523 Bus2=Bus_524 LineCode=AB Length=0.1  units=km
New Line.Line_525 Phases=3 BaseFreq=50 Bus1=Bus_524 Bus2=Bus_525 LineCode=AB Length=0.1  units=km
New Line.Line_526 Phases=3 BaseFreq=50 Bus1=Bus_525 Bus2=Bus_526 LineCode=AB Length=0.1  units=km
New Line.Line_527 Phases=3 BaseFreq=50 Bus1=Bus_526 Bus2=Bus_527 LineCode=AB Length=0.1  units=km
New Line.Line_528 Phases=3 BaseFreq=50 Bus1=Bus_527 Bus2=Bus_528 LineCode=AB Length=0.1  units=km
New Line.Line_529 Phases=3 BaseFreq=50 Bus1=Bus_528 Bus2=Bus_529 LineCode=AB Length=0.1  units=km
New Line.Line_530 Phases=3 BaseFreq=50 Bus1=Bus_529 Bus2=Bus_530 LineCode=AB Length=0.1  units=km
New Line.Line_531 Phases=3 BaseFreq=50 Bus1=Bus_530 Bus2=Bus_531 LineCode=AB Length=0.1  units=km
New Line.Line_532 Phases=3 BaseFreq=50 Bus1=Bus_531 Bus2=Bus_532 LineCode=AB Length=0.1  units=km
New Line.Line_533 Phases=3 BaseFreq=50 Bus1=Bus_532 Bus2=Bus_533 LineCode=AB Length=0.1  units=km
New Line.Line_534 Phases=3 BaseFreq=50 Bus1=Bus_533 Bus2=Bus_534 LineCode=AB Length=0.1  units=km
New Line.Line_535 Phases=3 BaseFreq=50 Bus1=Bus_534 Bus2=Bus_535 LineCode=AB Length=0.1  units=km
New Line.Line_536 Phases=3 BaseFreq=50 Bus1=Bus_535 Bus2=Bus_536 LineCode=AB Length=0.1  units=km
New Line.Line_537 Phases=3 BaseFreq=50 Bus1=Bus_536 Bus2=Bus_537 LineCode=AB Length=0.1  units=km
New Line.Line_538 Phases=3 BaseFreq=50 Bus1=Bus_537 Bus2=Bus_538 LineCode=AB Length=0.1  units=km
New Line.Line_539 Phases=3 BaseFreq=50 Bus1=Bus_538 Bus2=Bus_539 LineCode=AB Length=0.1  units=km
New Line.Line_540 Phases=3 BaseFreq=50 Bus1=Bus_539 Bus2=Bus_540 LineCode=AB Length=0.1  units=km
New Line.Line_541 Phases=3 BaseFreq=50 Bus1=Bus_540 Bus2=Bus_541 LineCode=AB Length=0.1  units=km
New Line.Line_542 Phases=3 BaseFreq=50 Bus1=Bus_541 Bus2=Bus_542 LineCode=AB Length=0.1  units=km
New Line.Line_543 Phases=3 BaseFreq=50 Bus1=Bus_542 Bus2=Bus_543 LineCode=AB Length=0.1  units=km
New Line.Line_544 Phases=3 BaseFreq=50 Bus1=Bus_543 Bus2=Bus_544 LineCode=AB Length=0.1  units=km
New Line.Line_545 Phases=3 BaseFreq=50 Bus1=Bus_544 Bus2=Bus_545 LineCode=AB Length=0.1  units=km
New Line.Line_546 Phases=3 BaseFreq=50 Bus1=Bus_545 Bus2=Bus_546 LineCode=AB Length=0.1  units=km
New Line.Line_547 Phases=3 BaseFreq=50 Bus1=Bus_546 Bus2=Bus_547 LineCode=AB Length=0.1  units=km
New Line.Line_548 Phases=3 BaseFreq=50 Bus1=Bus_547 Bus2=Bus_548 LineCode=AB Length=0.1  units=km
New Line.Line_549 Phases=3 BaseFreq=50 Bus1=Bus_548 Bus2=Bus_549 LineCode=AB Length=0.1  units=km
New Line.Line_550 Phases=3 BaseFreq=50 Bus1=Bus_549 Bus2=Bus_550 LineCode=AB Length=0.1  units=km
New Line.Line_551 Phases=3 BaseFreq=50 Bus1=Bus_550 Bus2=Bus_551 LineCode=AB Length=0.1  units=km
New Line.Line_552 Phases=3 BaseFreq=50 Bus1=Bus_551 Bus2=Bus_552 LineCode=AB Length=0.1  units=km
New Line.Line_553 Phases=3 BaseFreq=50 Bus1=Bus_552 Bus2=Bus_553 LineCode=AB Length=0.1  units=km
New Line.Line_554 Phases=3 BaseFreq=50 Bus1=Bus_1022 Bus2=Bus_554 LineCode=AB Length=0.1  units=km
New Line.Line_555 Phases=3 BaseFreq=50 Bus1=Bus_554 Bus2=Bus_555 LineCode=AB Length=0.1  units=km
New Line.Line_556 Phases=3 BaseFreq=50 Bus1=Bus_555 Bus2=Bus_556 LineCode=AB Length=0.1  units=km
New Line.Line_557 Phases=3 BaseFreq=50 Bus1=Bus_556 Bus2=Bus_557 LineCode=AB Length=0.1  units=km
New Line.Line_558 Phases=3 BaseFreq=50 Bus1=Bus_557 Bus2=Bus_558 LineCode=AB Length=0.1  units=km
New Line.Line_559 Phases=3 BaseFreq=50 Bus1=Bus_558 Bus2=Bus_559 LineCode=AB Length=0.1  units=km
New Line.Line_560 Phases=3 BaseFreq=50 Bus1=Bus_559 Bus2=Bus_560 LineCode=AB Length=0.1  units=km
New Line.Line_561 Phases=3 BaseFreq=50 Bus1=Bus_560 Bus2=Bus_561 LineCode=AB Length=0.1  units=km
New Line.Line_562 Phases=3 BaseFreq=50 Bus1=Bus_561 Bus2=Bus_562 LineCode=AB Length=0.1  units=km
New Line.Line_563 Phases=3 BaseFreq=50 Bus1=Bus_562 Bus2=Bus_563 LineCode=AB Length=0.1  units=km
New Line.Line_564 Phases=3 BaseFreq=50 Bus1=Bus_563 Bus2=Bus_564 LineCode=AB Length=0.1  units=km
New Line.Line_565 Phases=3 BaseFreq=50 Bus1=Bus_564 Bus2=Bus_565 LineCode=AB Length=0.1  units=km
New Line.Line_566 Phases=3 BaseFreq=50 Bus1=Bus_565 Bus2=Bus_566 LineCode=AB Length=0.1  units=km
New Line.Line_567 Phases=3 BaseFreq=50 Bus1=Bus_566 Bus2=Bus_567 LineCode=AB Length=0.1  units=km
New Line.Line_568 Phases=3 BaseFreq=50 Bus1=Bus_567 Bus2=Bus_568 LineCode=AB Length=0.1  units=km
New Line.Line_569 Phases=3 BaseFreq=50 Bus1=Bus_568 Bus2=Bus_569 LineCode=AB Length=0.1  units=km
New Line.Line_570 Phases=3 BaseFreq=50 Bus1=Bus_569 Bus2=Bus_570 LineCode=AB Length=0.1  units=km
New Line.Line_571 Phases=3 BaseFreq=50 Bus1=Bus_570 Bus2=Bus_571 LineCode=AB Length=0.1  units=km
New Line.Line_572 Phases=3 BaseFreq=50 Bus1=Bus_571 Bus2=Bus_572 LineCode=AB Length=0.1  units=km
New Line.Line_573 Phases=3 BaseFreq=50 Bus1=Bus_572 Bus2=Bus_573 LineCode=AB Length=0.1  units=km
New Line.Line_574 Phases=3 BaseFreq=50 Bus1=Bus_573 Bus2=Bus_574 LineCode=AB Length=0.1  units=km
New Line.Line_575 Phases=3 BaseFreq=50 Bus1=Bus_574 Bus2=Bus_575 LineCode=AB Length=0.1  units=km
New Line.Line_576 Phases=3 BaseFreq=50 Bus1=Bus_575 Bus2=Bus_576 LineCode=AB Length=0.1  units=km
New Line.Line_577 Phases=3 BaseFreq=50 Bus1=Bus_576 Bus2=Bus_577 LineCode=AB Length=0.1  units=km
New Line.Line_578 Phases=3 BaseFreq=50 Bus1=Bus_577 Bus2=Bus_578 LineCode=AB Length=0.1  units=km
New Line.Line_579 Phases=3 BaseFreq=50 Bus1=Bus_578 Bus2=Bus_579 LineCode=AB Length=0.1  units=km
New Line.Line_580 Phases=3 BaseFreq=50 Bus1=Bus_579 Bus2=Bus_580 LineCode=AB Length=0.1  units=km
New Line.Line_581 Phases=3 BaseFreq=50 Bus1=Bus_580 Bus2=Bus_581 LineCode=AB Length=0.1  units=km
New Line.Line_582 Phases=3 BaseFreq=50 Bus1=Bus_581 Bus2=Bus_582 LineCode=AB Length=0.1  units=km
New Line.Line_583 Phases=3 BaseFreq=50 Bus1=Bus_582 Bus2=Bus_583 LineCode=AB Length=0.1  units=km
New Line.Line_584 Phases=3 BaseFreq=50 Bus1=Bus_583 Bus2=Bus_584 LineCode=AB Length=0.1  units=km
New Line.Line_585 Phases=3 BaseFreq=50 Bus1=Bus_584 Bus2=Bus_585 LineCode=AB Length=0.1  units=km
New Line.Line_586 Phases=3 BaseFreq=50 Bus1=Bus_585 Bus2=Bus_586 LineCode=AB Length=0.1  units=km
New Line.Line_587 Phases=3 BaseFreq=50 Bus1=Bus_586 Bus2=Bus_587 LineCode=AB Length=0.1  units=km
New Line.Line_588 Phases=3 BaseFreq=50 Bus1=Bus_587 Bus2=Bus_588 LineCode=AB Length=0.1  units=km
New Line.Line_589 Phases=3 BaseFreq=50 Bus1=Bus_588 Bus2=Bus_589 LineCode=AB Length=0.1  units=km
New Line.Line_590 Phases=3 BaseFreq=50 Bus1=Bus_589 Bus2=Bus_590 LineCode=AB Length=0.1  units=km
New Line.Line_591 Phases=3 BaseFreq=50 Bus1=Bus_590 Bus2=Bus_591 LineCode=AB Length=0.1  units=km
New Line.Line_592 Phases=3 BaseFreq=50 Bus1=Bus_591 Bus2=Bus_592 LineCode=AB Length=0.1  units=km
New Line.Line_593 Phases=3 BaseFreq=50 Bus1=Bus_592 Bus2=Bus_593 LineCode=AB Length=0.1  units=km
New Line.Line_594 Phases=3 BaseFreq=50 Bus1=Bus_593 Bus2=Bus_594 LineCode=AB Length=0.1  units=km
New Line.Line_595 Phases=3 BaseFreq=50 Bus1=Bus_594 Bus2=Bus_595 LineCode=AB Length=0.1  units=km
New Line.Line_596 Phases=3 BaseFreq=50 Bus1=Bus_595 Bus2=Bus_596 LineCode=AB Length=0.1  units=km
New Line.Line_597 Phases=3 BaseFreq=50 Bus1=Bus_596 Bus2=Bus_597 LineCode=AB Length=0.1  units=km
New Line.Line_598 Phases=3 BaseFreq=50 Bus1=Bus_597 Bus2=Bus_598 LineCode=AB Length=0.1  units=km
New Line.Line_599 Phases=3 BaseFreq=50 Bus1=Bus_598 Bus2=Bus_599 LineCode=AB Length=0.1  units=km
New Line.Line_600 Phases=3 BaseFreq=50 Bus1=Bus_599 Bus2=Bus_600 LineCode=AB Length=0.1  units=km
New Line.Line_601 Phases=3 BaseFreq=50 Bus1=Bus_1023 Bus2=Bus_601 LineCode=AB Length=0.1  units=km
New Line.Line_602 Phases=3 BaseFreq=50 Bus1=Bus_601 Bus2=Bus_602 LineCode=AB Length=0.1  units=km
New Line.Line_603 Phases=3 BaseFreq=50 Bus1=Bus_602 Bus2=Bus_603 LineCode=AB Length=0.1  units=km
New Line.Line_604 Phases=3 BaseFreq=50 Bus1=Bus_603 Bus2=Bus_604 LineCode=AB Length=0.1  units=km
New Line.Line_605 Phases=3 BaseFreq=50 Bus1=Bus_604 Bus2=Bus_605 LineCode=AB Length=0.1  units=km
New Line.Line_606 Phases=3 BaseFreq=50 Bus1=Bus_605 Bus2=Bus_606 LineCode=AB Length=0.1  units=km
New Line.Line_607 Phases=3 BaseFreq=50 Bus1=Bus_606 Bus2=Bus_607 LineCode=AB Length=0.1  units=km
New Line.Line_608 Phases=3 BaseFreq=50 Bus1=Bus_607 Bus2=Bus_608 LineCode=AB Length=0.1  units=km
New Line.Line_609 Phases=3 BaseFreq=50 Bus1=Bus_608 Bus2=Bus_609 LineCode=AB Length=0.1  units=km
New Line.Line_610 Phases=3 BaseFreq=50 Bus1=Bus_609 Bus2=Bus_610 LineCode=AB Length=0.1  units=km
New Line.Line_611 Phases=3 BaseFreq=50 Bus1=Bus_610 Bus2=Bus_611 LineCode=AB Length=0.1  units=km
New Line.Line_612 Phases=3 BaseFreq=50 Bus1=Bus_611 Bus2=Bus_612 LineCode=AB Length=0.1  units=km
New Line.Line_613 Phases=3 BaseFreq=50 Bus1=Bus_612 Bus2=Bus_613 LineCode=AB Length=0.1  units=km
New Line.Line_614 Phases=3 BaseFreq=50 Bus1=Bus_613 Bus2=Bus_614 LineCode=AB Length=0.1  units=km
New Line.Line_615 Phases=3 BaseFreq=50 Bus1=Bus_614 Bus2=Bus_615 LineCode=AB Length=0.1  units=km
New Line.Line_616 Phases=3 BaseFreq=50 Bus1=Bus_615 Bus2=Bus_616 LineCode=AB Length=0.1  units=km
New Line.Line_617 Phases=3 BaseFreq=50 Bus1=Bus_616 Bus2=Bus_617 LineCode=AB Length=0.1  units=km
New Line.Line_618 Phases=3 BaseFreq=50 Bus1=Bus_617 Bus2=Bus_618 LineCode=AB Length=0.1  units=km
New Line.Line_619 Phases=3 BaseFreq=50 Bus1=Bus_618 Bus2=Bus_619 LineCode=AB Length=0.1  units=km
New Line.Line_620 Phases=3 BaseFreq=50 Bus1=Bus_619 Bus2=Bus_620 LineCode=AB Length=0.1  units=km
New Line.Line_621 Phases=3 BaseFreq=50 Bus1=Bus_620 Bus2=Bus_621 LineCode=AB Length=0.1  units=km
New Line.Line_622 Phases=3 BaseFreq=50 Bus1=Bus_621 Bus2=Bus_622 LineCode=AB Length=0.1  units=km
New Line.Line_623 Phases=3 BaseFreq=50 Bus1=Bus_622 Bus2=Bus_623 LineCode=AB Length=0.1  units=km
New Line.Line_624 Phases=3 BaseFreq=50 Bus1=Bus_623 Bus2=Bus_624 LineCode=AB Length=0.1  units=km
New Line.Line_625 Phases=3 BaseFreq=50 Bus1=Bus_624 Bus2=Bus_625 LineCode=AB Length=0.1  units=km
New Line.Line_626 Phases=3 BaseFreq=50 Bus1=Bus_625 Bus2=Bus_626 LineCode=AB Length=0.1  units=km
New Line.Line_627 Phases=3 BaseFreq=50 Bus1=Bus_626 Bus2=Bus_627 LineCode=AB Length=0.1  units=km
New Line.Line_628 Phases=3 BaseFreq=50 Bus1=Bus_627 Bus2=Bus_628 LineCode=AB Length=0.1  units=km
New Line.Line_629 Phases=3 BaseFreq=50 Bus1=Bus_628 Bus2=Bus_629 LineCode=AB Length=0.1  units=km
New Line.Line_630 Phases=3 BaseFreq=50 Bus1=Bus_629 Bus2=Bus_630 LineCode=AB Length=0.1  units=km
New Line.Line_631 Phases=3 BaseFreq=50 Bus1=Bus_630 Bus2=Bus_631 LineCode=AB Length=0.1  units=km
New Line.Line_632 Phases=3 BaseFreq=50 Bus1=Bus_631 Bus2=Bus_632 LineCode=AB Length=0.1  units=km
New Line.Line_633 Phases=3 BaseFreq=50 Bus1=Bus_632 Bus2=Bus_633 LineCode=AB Length=0.1  units=km
New Line.Line_634 Phases=3 BaseFreq=50 Bus1=Bus_633 Bus2=Bus_634 LineCode=AB Length=0.1  units=km
New Line.Line_635 Phases=3 BaseFreq=50 Bus1=Bus_634 Bus2=Bus_635 LineCode=AB Length=0.1  units=km
New Line.Line_636 Phases=3 BaseFreq=50 Bus1=Bus_635 Bus2=Bus_636 LineCode=AB Length=0.1  units=km
New Line.Line_637 Phases=3 BaseFreq=50 Bus1=Bus_636 Bus2=Bus_637 LineCode=AB Length=0.1  units=km
New Line.Line_638 Phases=3 BaseFreq=50 Bus1=Bus_637 Bus2=Bus_638 LineCode=AB Length=0.1  units=km
New Line.Line_639 Phases=3 BaseFreq=50 Bus1=Bus_638 Bus2=Bus_639 LineCode=AB Length=0.1  units=km
New Line.Line_640 Phases=3 BaseFreq=50 Bus1=Bus_639 Bus2=Bus_640 LineCode=AB Length=0.1  units=km
New Line.Line_641 Phases=3 BaseFreq=50 Bus1=Bus_640 Bus2=Bus_641 LineCode=AB Length=0.1  units=km
New Line.Line_642 Phases=3 BaseFreq=50 Bus1=Bus_641 Bus2=Bus_642 LineCode=AB Length=0.1  units=km
New Line.Line_643 Phases=3 BaseFreq=50 Bus1=Bus_642 Bus2=Bus_643 LineCode=AB Length=0.1  units=km
New Line.Line_644 Phases=3 BaseFreq=50 Bus1=Bus_643 Bus2=Bus_644 LineCode=AB Length=0.1  units=km
New Line.Line_645 Phases=3 BaseFreq=50 Bus1=Bus_644 Bus2=Bus_645 LineCode=AB Length=0.1  units=km
New Line.Line_646 Phases=3 BaseFreq=50 Bus1=Bus_645 Bus2=Bus_646 LineCode=AB Length=0.1  units=km
New Line.Line_647 Phases=3 BaseFreq=50 Bus1=Bus_646 Bus2=Bus_647 LineCode=AB Length=0.1  units=km
New Line.Line_648 Phases=3 BaseFreq=50 Bus1=Bus_1024 Bus2=Bus_648 LineCode=AB Length=0.1  units=km
New Line.Line_649 Phases=3 BaseFreq=50 Bus1=Bus_648 Bus2=Bus_649 LineCode=AB Length=0.1  units=km
New Line.Line_650 Phases=3 BaseFreq=50 Bus1=Bus_649 Bus2=Bus_650 LineCode=AB Length=0.1  units=km
New Line.Line_651 Phases=3 BaseFreq=50 Bus1=Bus_650 Bus2=Bus_651 LineCode=AB Length=0.1  units=km
New Line.Line_652 Phases=3 BaseFreq=50 Bus1=Bus_651 Bus2=Bus_652 LineCode=AB Length=0.1  units=km
New Line.Line_653 Phases=3 BaseFreq=50 Bus1=Bus_652 Bus2=Bus_653 LineCode=AB Length=0.1  units=km
New Line.Line_654 Phases=3 BaseFreq=50 Bus1=Bus_653 Bus2=Bus_654 LineCode=AB Length=0.1  units=km
New Line.Line_655 Phases=3 BaseFreq=50 Bus1=Bus_654 Bus2=Bus_655 LineCode=AB Length=0.1  units=km
New Line.Line_656 Phases=3 BaseFreq=50 Bus1=Bus_655 Bus2=Bus_656 LineCode=AB Length=0.1  units=km
New Line.Line_657 Phases=3 BaseFreq=50 Bus1=Bus_656 Bus2=Bus_657 LineCode=AB Length=0.1  units=km
New Line.Line_658 Phases=3 BaseFreq=50 Bus1=Bus_657 Bus2=Bus_658 LineCode=AB Length=0.1  units=km
New Line.Line_659 Phases=3 BaseFreq=50 Bus1=Bus_658 Bus2=Bus_659 LineCode=AB Length=0.1  units=km
New Line.Line_660 Phases=3 BaseFreq=50 Bus1=Bus_659 Bus2=Bus_660 LineCode=AB Length=0.1  units=km
New Line.Line_661 Phases=3 BaseFreq=50 Bus1=Bus_660 Bus2=Bus_661 LineCode=AB Length=0.1  units=km
New Line.Line_662 Phases=3 BaseFreq=50 Bus1=Bus_661 Bus2=Bus_662 LineCode=AB Length=0.1  units=km
New Line.Line_663 Phases=3 BaseFreq=50 Bus1=Bus_662 Bus2=Bus_663 LineCode=AB Length=0.1  units=km
New Line.Line_664 Phases=3 BaseFreq=50 Bus1=Bus_663 Bus2=Bus_664 LineCode=AB Length=0.1  units=km
New Line.Line_665 Phases=3 BaseFreq=50 Bus1=Bus_664 Bus2=Bus_665 LineCode=AB Length=0.1  units=km
New Line.Line_666 Phases=3 BaseFreq=50 Bus1=Bus_665 Bus2=Bus_666 LineCode=AB Length=0.1  units=km
New Line.Line_667 Phases=3 BaseFreq=50 Bus1=Bus_666 Bus2=Bus_667 LineCode=AB Length=0.1  units=km
New Line.Line_668 Phases=3 BaseFreq=50 Bus1=Bus_667 Bus2=Bus_668 LineCode=AB Length=0.1  units=km
New Line.Line_669 Phases=3 BaseFreq=50 Bus1=Bus_668 Bus2=Bus_669 LineCode=AB Length=0.1  units=km
New Line.Line_670 Phases=3 BaseFreq=50 Bus1=Bus_669 Bus2=Bus_670 LineCode=AB Length=0.1  units=km
New Line.Line_671 Phases=3 BaseFreq=50 Bus1=Bus_670 Bus2=Bus_671 LineCode=AB Length=0.1  units=km
New Line.Line_672 Phases=3 BaseFreq=50 Bus1=Bus_671 Bus2=Bus_672 LineCode=AB Length=0.1  units=km
New Line.Line_673 Phases=3 BaseFreq=50 Bus1=Bus_672 Bus2=Bus_673 LineCode=AB Length=0.1  units=km
New Line.Line_674 Phases=3 BaseFreq=50 Bus1=Bus_673 Bus2=Bus_674 LineCode=AB Length=0.1  units=km
New Line.Line_675 Phases=3 BaseFreq=50 Bus1=Bus_674 Bus2=Bus_675 LineCode=AB Length=0.1  units=km
New Line.Line_676 Phases=3 BaseFreq=50 Bus1=Bus_675 Bus2=Bus_676 LineCode=AB Length=0.1  units=km
New Line.Line_677 Phases=3 BaseFreq=50 Bus1=Bus_676 Bus2=Bus_677 LineCode=AB Length=0.1  units=km
New Line.Line_678 Phases=3 BaseFreq=50 Bus1=Bus_677 Bus2=Bus_678 LineCode=AB Length=0.1  units=km
New Line.Line_679 Phases=3 BaseFreq=50 Bus1=Bus_678 Bus2=Bus_679 LineCode=AB Length=0.1  units=km
New Line.Line_680 Phases=3 BaseFreq=50 Bus1=Bus_679 Bus2=Bus_680 LineCode=AB Length=0.1  units=km
New Line.Line_681 Phases=3 BaseFreq=50 Bus1=Bus_680 Bus2=Bus_681 LineCode=AB Length=0.1  units=km
New Line.Line_682 Phases=3 BaseFreq=50 Bus1=Bus_681 Bus2=Bus_682 LineCode=AB Length=0.1  units=km
New Line.Line_683 Phases=3 BaseFreq=50 Bus1=Bus_682 Bus2=Bus_683 LineCode=AB Length=0.1  units=km
New Line.Line_684 Phases=3 BaseFreq=50 Bus1=Bus_683 Bus2=Bus_684 LineCode=AB Length=0.1  units=km
New Line.Line_685 Phases=3 BaseFreq=50 Bus1=Bus_684 Bus2=Bus_685 LineCode=AB Length=0.1  units=km
New Line.Line_686 Phases=3 BaseFreq=50 Bus1=Bus_685 Bus2=Bus_686 LineCode=AB Length=0.1  units=km
New Line.Line_687 Phases=3 BaseFreq=50 Bus1=Bus_686 Bus2=Bus_687 LineCode=AB Length=0.1  units=km
New Line.Line_688 Phases=3 BaseFreq=50 Bus1=Bus_687 Bus2=Bus_688 LineCode=AB Length=0.1  units=km
New Line.Line_689 Phases=3 BaseFreq=50 Bus1=Bus_688 Bus2=Bus_689 LineCode=AB Length=0.1  units=km
New Line.Line_690 Phases=3 BaseFreq=50 Bus1=Bus_689 Bus2=Bus_690 LineCode=AB Length=0.1  units=km
New Line.Line_691 Phases=3 BaseFreq=50 Bus1=Bus_690 Bus2=Bus_691 LineCode=AB Length=0.1  units=km
New Line.Line_692 Phases=3 BaseFreq=50 Bus1=Bus_691 Bus2=Bus_692 LineCode=AB Length=0.1  units=km
New Line.Line_693 Phases=3 BaseFreq=50 Bus1=Bus_692 Bus2=Bus_693 LineCode=AB Length=0.1  units=km
New Line.Line_694 Phases=3 BaseFreq=50 Bus1=Bus_693 Bus2=Bus_694 LineCode=AB Length=0.1  units=km
New Line.Line_695 Phases=3 BaseFreq=50 Bus1=Bus_1025 Bus2=Bus_695 LineCode=AB Length=0.1  units=km
New Line.Line_696 Phases=3 BaseFreq=50 Bus1=Bus_695 Bus2=Bus_696 LineCode=AB Length=0.1  units=km
New Line.Line_697 Phases=3 BaseFreq=50 Bus1=Bus_696 Bus2=Bus_697 LineCode=AB Length=0.1  units=km
New Line.Line_698 Phases=3 BaseFreq=50 Bus1=Bus_697 Bus2=Bus_698 LineCode=AB Length=0.1  units=km
New Line.Line_699 Phases=3 BaseFreq=50 Bus1=Bus_698 Bus2=Bus_699 LineCode=AB Length=0.1  units=km
New Line.Line_700 Phases=3 BaseFreq=50 Bus1=Bus_699 Bus2=Bus_700 LineCode=AB Length=0.1  units=km
New Line.Line_701 Phases=3 BaseFreq=50 Bus1=Bus_700 Bus2=Bus_701 LineCode=AB Length=0.1  units=km
New Line.Line_702 Phases=3 BaseFreq=50 Bus1=Bus_701 Bus2=Bus_702 LineCode=AB Length=0.1  units=km
New Line.Line_703 Phases=3 BaseFreq=50 Bus1=Bus_702 Bus2=Bus_703 LineCode=AB Length=0.1  units=km
New Line.Line_704 Phases=3 BaseFreq=50 Bus1=Bus_703 Bus2=Bus_704 LineCode=AB Length=0.1  units=km
...


!FEEDER_4

New Line.Line_757 Phases=3 BaseFreq=50 Bus1=Bus_1027 Bus2=Bus_757 LineCode=AB Length=0.1  units=km
New Line.Line_758 Phases=3 BaseFreq=50 Bus1=Bus_757 Bus2=Bus_758 LineCode=AB Length=0.1  units=km
New Line.Line_759 Phases=3 BaseFreq=50 Bus1=Bus_758 Bus2=Bus_759 LineCode=AB Length=0.1  units=km
New Line.Line_760 Phases=3 BaseFreq=50 Bus1=Bus_759 Bus2=Bus_760 LineCode=AB Length=0.1  units=km
New Line.Line_761 Phases=3 BaseFreq=50 Bus1=Bus_760 Bus2=Bus_761 LineCode=AB Length=0.1  units=km
New Line.Line_762 Phases=3 BaseFreq=50 Bus1=Bus_761 Bus2=Bus_762 LineCode=AB Length=0.1  units=km
New Line.Line_763 Phases=3 BaseFreq=50 Bus1=Bus_762 Bus2=Bus_763 LineCode=AB Length=0.1  units=km
New Line.Line_764 Phases=3 BaseFreq=50 Bus1=Bus_763 Bus2=Bus_764 LineCode=AB Length=0.1  units=km
New Line.Line_765 Phases=3 BaseFreq=50 Bus1=Bus_764 Bus2=Bus_765 LineCode=AB Length=0.1  units=km
New Line.Line_766 Phases=3 BaseFreq=50 Bus1=Bus_765 Bus2=Bus_766 LineCode=AB Length=0.1  units=km
New Line.Line_767 Phases=3 BaseFreq=50 Bus1=Bus_766 Bus2=Bus_767 LineCode=AB Length=0.1  units=km
New Line.Line_768 Phases=3 BaseFreq=50 Bus1=Bus_767 Bus2=Bus_768 LineCode=AB Length=0.1  units=km
New Line.Line_769 Phases=3 BaseFreq=50 Bus1=Bus_768 Bus2=Bus_769 LineCode=AB Length=0.1  units=km
...